%chk=moh-xF-1.6.chk
# opt=modredundant 6-31+g geom=connectivity bmk

Title Card Required

0 1
 C                  0.77206676    0.00028073    0.00000026
 H                  0.99836621    1.05950651   -0.00011445
 H                  0.99869216   -0.52538675    0.92249757
 H                  0.99870557   -0.52558858   -0.92237957
 O                 -0.82442396    0.10619283   -0.00000093
 H                 -1.03277284   -0.85975821    0.00000231

 1 2 1.0 3 1.0 4 1.0 5 1.0
 2
 3
 4
 5 6 1.0
 6

B 1 5 F

