%chk=moh-xF-1.chk
# opt=modredundant 6-31+g geom=connectivity bmk

Title Card Required

0 1
 C                  0.62239576    0.01020999    0.00000015
 H                  0.84869521    1.06943577   -0.00011456
 H                  0.84902116   -0.51545749    0.92249746
 H                  0.84903457   -0.51565932   -0.92237968
 O                 -0.67475296    0.09626357   -0.00000082
 H                 -0.88310184   -0.86968747    0.00000242

 1 2 1.0 3 1.0 4 1.0 5 1.0
 2
 3
 4
 5 6 1.0
 6

B 1 5 F

