%chk=moh-xF-1.9.chk
# opt=modredundant 6-31+g geom=connectivity bmk

Title Card Required

0 1
 C                  0.92173777   -0.00964852    0.00000038
 H                  1.14803722    1.04957726   -0.00011433
 H                  1.14836317   -0.53531600    0.92249769
 H                  1.14837658   -0.53551783   -0.92237945
 O                 -0.97409497    0.11612208   -0.00000105
 H                 -1.18244385   -0.84982896    0.00000219

 1 2 1.0 3 1.0 4 1.0 5 1.0
 2
 3
 4
 5 6 1.0
 6

B 1 5 F

