%chk=moh-xF.chk
# opt=modredundant 6-31+g geom=connectivity bmk

Title Card Required

0 1
 C                  0.72217643    0.00359048    0.00000022
 H                  0.94847588    1.06281626   -0.00011449
 H                  0.94880183   -0.52207700    0.92249753
 H                  0.94881524   -0.52227883   -0.92237961
 O                 -0.77453363    0.10288308   -0.00000089
 H                 -0.98288251   -0.86306796    0.00000235

 1 2 1.0 3 1.0 4 1.0 5 1.0
 2
 3
 4
 5 6 1.0
 6

B 1 5 F

