%chk=moh-xF-1.8.chk
# opt=modredundant 6-31+g geom=connectivity bmk

Title Card Required

0 1
 C                  0.87184743   -0.00633877    0.00000034
 H                  1.09814688    1.05288701   -0.00011437
 H                  1.09847283   -0.53200625    0.92249765
 H                  1.09848624   -0.53220808   -0.92237949
 O                 -0.92420463    0.11281233   -0.00000101
 H                 -1.13255351   -0.85313871    0.00000223

 1 2 1.0 3 1.0 4 1.0 5 1.0
 2
 3
 4
 5 6 1.0
 6

B 1 5 F

