%chk=moh-x0-au.chk
# opt=calcfc freq=(savenormalmodes, IntModes) units=(AU, Rad) 6-31+g geom=(connectivity) bmk

Title Card Required

0 1
 C                 -1.54466506   -0.08684863    0.00000000
 H                 -1.18801063   -1.09565864    0.00000000
 H                 -1.18799222    0.41754956    0.87365150
 H                 -2.61466506   -0.08683545    0.00000000
 O                 -1.06799014    0.58725362   -1.16759033
 H                 -1.38919494    1.49192250   -1.16889301

 1 2 1.0 3 1.0 4 1.0 5 1.0
 2
 3
 4
 5 6 1.0
 6

